# Developed by Guanru Zhang, Peng Lu, Yilun Zhang, Kevin Tu, and Chen Zhu
# All inquiries should be directed to supcrt@indiana.edu
# On 4/1/2019
# Citation: Zhang GR, Lu P, Zhang YL, Tu K, Zhu C. 2020. SUPPHREEQC: A program
#    for generating customized PHREEQC thermodynamic datasets from SUPCRTBL and
#    extending calculations to elevated pressures and temperatures. Computers &
#    Geosciences, 143: 104560.
# Visit https://hydrogeochem.earth.indiana.edu for updates


# LLNL.DAT framework (LogKs are under varied T and constant P in one-phase region).
# Temperature(oC): 200 - 500
# Constant pressure(bar): 2000
# It's users' responsibility to mind the valid upper limits of temperature and pressure for all data used.


LLNL_AQUEOUS_MODEL_PARAMETERS
-temperatures
  200.0000  230.0000  260.0000  290.0000
  320.0000  350.0000  380.0000  410.0000
  440.0000  470.0000  500.0000
-dh_a
    0.6706    0.7159    0.7670    0.8207
    0.8788    0.9420    1.0136    1.0907
    1.1765    1.2729    1.3783
-dh_b
    0.3561    0.3612    0.3663    0.3712
    0.3760    0.3808    0.3857    0.3905
    0.3953    0.4001    0.4049
-bdot
    0.0760    0.0698    0.0626    0.0554
    0.0474    0.0380    0.0272    0.0156
    0.0018   -0.0134   -0.0270
-co2_coefs        # range: 0-400 oC, 0-500 bar
        -1.0312              0.0012806
          255.9                 0.4445
      -0.001606


SOLUTION_MASTER_SPECIES
Acetate  HAcetate       0.0     Acetate         59.		
Ag	 Ag+		0.0	Ag		107.8682	
Ag(1)	 Ag+		0	Ag                                                            
Ag(2)	 Ag+2   	0	Ag                                                            
Al       Al+3           0.0     Al              26.9815		
Alkalinity HCO3-        1.0     Ca0.5(CO3)0.5   50.05		
As	 H2AsO4-	0.0	As		74.9216		
As(+3)	 H2AsO3-	0.0	As					                      
As(+5)	 H2AsO4-	0.0	As                                                            
Au	 Au+		0.0	Au		196.9665	
Au(+1)	 Au+		0.0	Au                                                            
Au(+3)	 Au+3		0.0	Au                                                            
B        B(OH)3         0.0     B               10.811		
Ba       Ba+2           0.0     Ba              137.3270	
Be	 Be+2		0.0	Be		9.0122		
Bi       Bi+3           0.0     Bi              208.9804	
Br       Br-            0.0     Br              79.904		
Br(-0.3) Br3- 		0	Br                                                            
Br(-1)	 Br-		0	Br                                                            
Br(1)	 BrO-		0	Br                                                            
Br(5)	 BrO3-		0	Br                                                            
Br(7)	 BrO4-		0	Br                                                            
C        HCO3-          1.0     HCO3            12.0110		
C(-4)	 CH4   		0.0	CH4             
C(+2)	 CO   		0	C                                                             
C(+4)    HCO3-          1.0     HCO3                                                          
Ca       Ca+2           0.0     Ca              40.078		
Cd       Cd+2           0.0     Cd              112.411		
Ce	 Ce+3		0.0	Ce		140.115		
Ce(+2)	 Ce+2		0.0	Ce                                                            
Ce(+3)	 Ce+3		0.0	Ce                                                            
Ce(+4)	 Ce+4		0.0	Ce                                                            
Cl       Cl-            0.0     Cl              35.4527		
Cl(-1)	 Cl-		0	Cl                                                            
Cl(1)	 ClO-		0	Cl                                                            
Cl(3)	 ClO2-		0	Cl                                                            
Cl(5)	 ClO3-		0	Cl                                                            
Cl(7)	 ClO4-		0	Cl                                                            
Co	 Co+2		0.0	Co		58.9332		
Co(+2)	 Co+2		0.0	Co                                                            
Co(+3)	 Co+3		0.0	Co                                                            
Cr	 CrO4-2		0.0	CrO4-2  	51.9961		
Cr(+2)	 Cr+2		0.0	Cr                                                            
Cr(+3)	 Cr+3		0.0	Cr                                                            
Cr(+6)	 CrO4-2		0.0	Cr                                                            
Cs	 Cs+		0.0	Cs		132.9054	
Cu       Cu+2           0.0     Cu              63.546		
Cu(+1)   Cu+            0.0     Cu                                                            
Cu(+2)   Cu+2           0.0     Cu                                                            
Dy	 Dy+3		0.0	Dy		162.50		
Dy(+2)	 Dy+2		0.0	Dy                                                            
Dy(+3)	 Dy+3		0.0	Dy                                                            
Dy(+4)	 Dy+4		0.0	Dy					                      
E        e-             0.0     0.0             0.0		
Er	 Er+3		0.0	Er		167.26		
Er(+2)	 Er+2		0.0	Er                                                            
Er(+3)	 Er+3		0.0	Er                                                            
Er(+4)	 Er+4		0.0	Er					                      
Eu	 Eu+3		0.0	Eu		151.965		
Eu(+2)	 Eu+2		0.0	Eu                                                            
Eu(+3)	 Eu+3		0.0	Eu                                                            
Eu(+4)	 Eu+4		0.0	Eu					                      
F        F-             0.0     F               18.9984		
Fe       Fe+2           0.0     Fe              55.847		
Fe(+2)   Fe+2           0.0     Fe                                                            
Fe(+3)   Fe+3           -2.0    Fe                                                            
Fr	 Fr+		0.0	Fr		223.0197	
Ga	 Ga+3		0.0	Ga		69.723		
Gd	 Gd+3		0.0	Gd		157.25		
Gd(+2)	 Gd+2		0.0	Gd                                                            
Gd(+3)	 Gd+3		0.0	Gd                                                            
Gd(+4)	 Gd+4		0.0	Gd					                      
H        H+             -1.     H               1.0079		
H(0)     H2             0.0     H                                                             
H(+1)    H+             -1.     0.0                                                           
He	 He   		0.0	He		4.0026		
Hf	 Hf+4		0.0	Hf		178.49		
Hg	 Hg+2		0.0	Hg		200.59		
Hg(+1)	 Hg2+2		0.0	Hg                                                            
Hg(+2)	 Hg+2		0.0	Hg                                                            
Ho	 Ho+3		0.0	Ho		164.9303	
Ho(+2)	 Ho+2		0.0	Ho                                                            
Ho(+3)	 Ho+3		0.0	Ho                                                            
Ho(+4)	 Ho+4		0.0	Ho					                      
I	 I-		0.0	I		126.9045	
I(-0.3)  I3-		0	I                                                             
I(-1)	 I-		0.0	I                                                             
I(+1)	 IO-		0.0	I                                                             
I(+5)	 IO3-		0.0	I                                                             
I(+7)	 IO4-		0.0	I                                                             
In	 In+3		0.0	In		114.82		
K        K+             0.0     K               39.0983		
Kr	 Kr   		0.0	Kr		83.80		
La	 La+3		0.0	La		138.9055	
La(2)	 La+2		0	La                                                            
La(3)	 La+3		0	La                                                            
Li       Li+            0.0     Li              6.9410		
Lu	 Lu+3		0.0	Lu		174.967		
Lu(+3)   Lu+3		0.0	Lu                                                            
Lu(+4)   Lu+4		0.0	Lu					                      
Mg       Mg+2           0.0     Mg              24.305		
Mn       Mn+2           0.0     Mn              54.938		
Mn(+2)   Mn+2           0.0     Mn                                                            
Mn(+3)   Mn+3           0.0     Mn                                                            
Mn(+6)   MnO4-2		0	Mn                                                            
Mn(+7)   MnO4-		0	Mn                                                            
Mo	 MoO4-2		0.0	Mo		95.94		
N        NH3            1.0     N               14.0067		
N(-3)    NH3            1.0     N                                                             
N(-2)    N2H5+          0.0     N					                      
N(0)     N2             0.0     N                                                             
N(+1)    H2N2O2         0.0     N					                      
N(+3)    NO2-           0.0     N                                                             
N(+5)    NO3-           0.0     N                                                             
Na       Na+            0.0     Na              22.9898		
Nb       HNbO3          0.0     Nb              92.9064		
Nd	 Nd+3		0.0	Nd		144.24		
Nd(+2)	 Nd+2		0.0	Nd                                                            
Nd(+3)	 Nd+3		0.0	Nd                                                            
Nd(+4)	 Nd+4		0.0	Nd					                      
Ne	 Ne   		0.0	Ne		20.1797		
Ni	 Ni+2		0.0	Ni		58.69		
O        H2O            0.0     O               15.994		
O(-2)    H2O            0.0     0.0                                                           
O(-1)    H2O2           0.0     O					                      
O(0)     O2             0.0     O                                                             
P        HPO4-2         2.0     P               30.9738		
P(+1)    H2PO2-         0.0     P					                      
P(+3)    H2PO3-         0.0     P					                      
P(5)     HPO4-2         2.0     P                                                             
Pb       Pb+2           0.0     Pb              207.20		
Pd	 Pd+2		0.0	Pd		106.42		
Pm	 Pm+3		0.0	Pm		147.00		
Pm(+2)	 Pm+2		0.0	Pm                                                            
Pm(+3)	 Pm+3		0.0	Pm                                                            
Pm(+4)   Pm+4		0.0	Pm					                      
Pr	 Pr+3		0.0	Pr		140.9076	
Pr(+2)	 Pr+2		0.0	Pr                                                            
Pr(+3)	 Pr+3		0.0	Pr                                                            
Pr(+4)	 Pr+4		0.0	Pr					                      
Pt       Pt+2           0.0     Pt              195.078		
Ra	 Ra+2		0.0	Ra		226.025		
Rb	 Rb+		0.0	Rb		85.4678		
Re	 ReO4-		0.0	Re		186.207		
Rh       Rh+3           0.0     Rh              102.9055	
Rh(+2)   Rh+2           0.0     Rh					                      
Rh(+3)   Rh+3           0.0     Rh					                      
Rn	 Rn   		0.0	Rn		222.00		
Ru	 RuO4-2		0.0	Ru		101.07		
Ru(+2)	 Ru+2		0.0	Ru                                                            
Ru(+3)	 Ru+3		0.0	Ru                                                            
Ru(+6)	 RuO4-2		0.0	Ru                                                            
S	 SO4-2          0.0     SO4             32.066		
S(-2)	 HS-            1.0     S                                                             
S(+2)	 S2O3-2		0.0	S                                                             
S(+3)	 S2O4-2		0.0	S                                                             
S(+4)	 SO3-2		0.0	S                                                             
S(+5)	 S2O5-2		0.0	S                                                             
S(+6)	 SO4-2          0.0     SO4                                                           
S(+7)	 S2O8-2		0.0	S                                                             
S(+8)	 HSO5-		0.0	S                                                             
Sb	 HSbO2   	0.0	Sb		121.75		
Sc	 Sc+3		0.0	Sc		44.9559		
Se	 SeO3-2		0.0	Se		78.96		
Se(-2)	 HSe-		0.0	Se                                                            
Se(+4)	 SeO3-2		0.0	Se                                                            
Se(+6)	 SeO4-2		0.0	Se                                                            
Si       SiO2           0.0     SiO2            28.0855		
Sm	 Sm+3		0.0	Sm		150.36		
Sm(+2)	 Sm+2		0.0	Sm                                                            
Sm(+3)	 Sm+3		0.0	Sm                                                            
Sm(+4)	 Sm+4		0.0	Sm					                      
Sn	 Sn+2		0.0	Sn		118.71		
Sr       Sr+2           0.0     Sr              87.62		
Tb	 Tb+3		0.0	Tb		158.9253	
Tb(+2)	 Tb+2		0.0	Tb                                                            
Tb(+3)	 Tb+3		0.0	Tb                                                            
Tb(+4)	 Tb+4		0.0	Tb					                      
Tc	 TcO4-		0.0	Tc		98.00		
Th	 Th+4		0.0	Th		232.0381	
Tl	 Tl+		0.0	Tl		204.3833	
Tl(+1)	 Tl+		0.0	Tl                                                            
Tl(+3)	 Tl+3		0.0	Tl                                                            
Tm	 Tm+3		0.0	Tm		168.9342	
Tm(+2)	 Tm+2		0.0	Tm                                                            
Tm(+3)	 Tm+3		0.0	Tm                                                            
Tm(+4)	 Tm+4		0.0	Tm					                      
U	 UO2+2		0.0	U		238.0289	
U(+3)	 U+3		0.0	U                                                             
U(+4)	 U+4		0.0	U                                                             
U(+5)	 UO2+		0.0	U                                                             
U(+6)	 UO2+2		0.0	U                                                             
V	 VO+2		0.0	V		50.9415		
V(+2)    V+2            0.0     V					                      
V(+3)	 V+3		0.0	V                                                             
V(+4)	 VO+2		0.0	V                                                             
V(+5)	 VO2+		0.0	V                                                             
W	 WO4-2		0.0	W		183.85		
Xe	 Xe   		0.0	Xe		131.29		
Y	 Y+3		0.0	Y		88.9059		
Yb	 Yb+3		0.0	Yb		173.04		
Yb(+2)	 Yb+2		0.0	Yb                                                            
Yb(+3)	 Yb+3		0.0	Yb                                                            
Yb(+4)	 Yb+4		0.0	Yb					                      
Zn       Zn+2           0.0     Zn              65.39		
Zr	 ZrO+2		0.0	Zr		91.224		


SOLUTION_SPECIES
Ag+ = Ag+
	-llnl_gamma	2.50
	-log_k	0.00
	-delta_h	0.00
Al+3 = Al+3
	-llnl_gamma	9.00
	-log_k	0.00
	-delta_h	0.00
Au+ = Au+
	-llnl_gamma	4.00
	-log_k	0.00
	-delta_h	0.00
B(OH)3 = B(OH)3
	-llnl_gamma	3.00
	-log_k	0.00
	-delta_h	0.00
Ba+2 = Ba+2
	-llnl_gamma	5.00
	-log_k	0.00
	-delta_h	0.00
Be+2 = Be+2
	-llnl_gamma	8.00
	-log_k	0.00
	-delta_h	0.00
Bi+3 = Bi+3
	-llnl_gamma	5.00
	-log_k	0.00
	-delta_h	0.00
Br- = Br-
	-llnl_gamma	3.00
	-log_k	0.00
	-delta_h	0.00
Ca+2 = Ca+2
	-llnl_gamma	6.00
	-log_k	0.00
	-delta_h	0.00
Cd+2 = Cd+2
	-llnl_gamma	5.00
	-log_k	0.00
	-delta_h	0.00
Ce+3 = Ce+3
	-llnl_gamma	9.00
	-log_k	0.00
	-delta_h	0.00
Cl- = Cl-
	-llnl_gamma	3.00
	-log_k	0.00
	-delta_h	0.00
Co+2 = Co+2
	-llnl_gamma	6.00
	-log_k	0.00
	-delta_h	0.00
CrO4-2 = CrO4-2
	-llnl_gamma	4.00
	-log_k	0.00
	-delta_h	0.00
Cs+ = Cs+
	-llnl_gamma	2.50
	-log_k	0.00
	-delta_h	0.00
Cu+2 = Cu+2
	-llnl_gamma	6.00
	-log_k	0.00
	-delta_h	0.00
Dy+3 = Dy+3
	-llnl_gamma	5.00
	-log_k	0.00
	-delta_h	0.00
Er+3 = Er+3
	-llnl_gamma	5.00
	-log_k	0.00
	-delta_h	0.00
Eu+3 = Eu+3
	-llnl_gamma	5.00
	-log_k	0.00
	-delta_h	0.00
F- = F-
	-llnl_gamma	3.50
	-log_k	0.00
	-delta_h	0.00
Fe+2 = Fe+2
	-llnl_gamma	6.00
	-log_k	0.00
	-delta_h	0.00
Fr+ = Fr+
	-llnl_gamma	4.00
	-log_k	0.00
	-delta_h	0.00
Ga+3 = Ga+3
	-llnl_gamma	5.00
	-log_k	0.00
	-delta_h	0.00
Gd+3 = Gd+3
	-llnl_gamma	5.00
	-log_k	0.00
	-delta_h	0.00
H+ = H+
	-llnl_gamma	9.00
	-log_k	0.00
	-delta_h	0.00
H2AsO4- = H2AsO4-
	-llnl_gamma	4.00
	-log_k	0.00
	-delta_h	0.00
H2O = H2O
	-llnl_gamma	3.00
	-log_k	0.00
	-delta_h	0.00
HAcetate = HAcetate
	-llnl_gamma	3.00
	-log_k	0.00
	-delta_h	0.00
HCO3- = HCO3-
	-llnl_gamma	4.00
	-log_k	0.00
	-delta_h	0.00
HNbO3 = HNbO3
	-llnl_gamma	3.00
	-log_k	0.00
	-delta_h	0.00
HPO4-2 = HPO4-2
	-llnl_gamma	4.00
	-log_k	0.00
	-delta_h	0.00
HSbO2 = HSbO2
	-llnl_gamma	3.00
	-log_k	0.00
	-delta_h	0.00
He = He
	-llnl_gamma	3.00
	-log_k	0.00
	-delta_h	0.00
Hf+4 = Hf+4
	-llnl_gamma	11.00
	-log_k	0.00
	-delta_h	0.00
Hg+2 = Hg+2
	-llnl_gamma	5.00
	-log_k	0.00
	-delta_h	0.00
Ho+3 = Ho+3
	-llnl_gamma	5.00
	-log_k	0.00
	-delta_h	0.00
I- = I-
	-llnl_gamma	3.00
	-log_k	0.00
	-delta_h	0.00
In+3 = In+3
	-llnl_gamma	9.00
	-log_k	0.00
	-delta_h	0.00
K+ = K+
	-llnl_gamma	3.00
	-log_k	0.00
	-delta_h	0.00
Kr = Kr
	-llnl_gamma	3.00
	-log_k	0.00
	-delta_h	0.00
La+3 = La+3
	-llnl_gamma	9.00
	-log_k	0.00
	-delta_h	0.00
Li+ = Li+
	-llnl_gamma	6.00
	-log_k	0.00
	-delta_h	0.00
Lu+3 = Lu+3
	-llnl_gamma	5.00
	-log_k	0.00
	-delta_h	0.00
Mg+2 = Mg+2
	-llnl_gamma	8.00
	-log_k	0.00
	-delta_h	0.00
Mn+2 = Mn+2
	-llnl_gamma	6.00
	-log_k	0.00
	-delta_h	0.00
MoO4-2 = MoO4-2
	-llnl_gamma	4.50
	-log_k	0.00
	-delta_h	0.00
NH3 = NH3
	-llnl_gamma	3.00
	-log_k	0.00
	-delta_h	0.00
Na+ = Na+
	-llnl_gamma	4.00
	-log_k	0.00
	-delta_h	0.00
Nd+3 = Nd+3
	-llnl_gamma	9.00
	-log_k	0.00
	-delta_h	0.00
Ne = Ne
	-llnl_gamma	3.00
	-log_k	0.00
	-delta_h	0.00
Ni+2 = Ni+2
	-llnl_gamma	6.00
	-log_k	0.00
	-delta_h	0.00
Pb+2 = Pb+2
	-llnl_gamma	4.50
	-log_k	0.00
	-delta_h	0.00
Pd+2 = Pd+2
	-llnl_gamma	4.50
	-log_k	0.00
	-delta_h	0.00
Pm+3 = Pm+3
	-llnl_gamma	5.00
	-log_k	0.00
	-delta_h	0.00
Pr+3 = Pr+3
	-llnl_gamma	9.00
	-log_k	0.00
	-delta_h	0.00
Pt+2 = Pt+2
	-llnl_gamma	4.50
	-log_k	0.00
	-delta_h	0.00
Ra+2 = Ra+2
	-llnl_gamma	5.00
	-log_k	0.00
	-delta_h	0.00
Rb+ = Rb+
	-llnl_gamma	2.50
	-log_k	0.00
	-delta_h	0.00
ReO4- = ReO4-
	-llnl_gamma	4.00
	-log_k	0.00
	-delta_h	0.00
Rh+3 = Rh+3
	-llnl_gamma	5.00
	-log_k	0.00
	-delta_h	0.00
Rn = Rn
	-llnl_gamma	3.00
	-log_k	0.00
	-delta_h	0.00
RuO4-2 = RuO4-2
	-llnl_gamma	4.00
	-log_k	0.00
	-delta_h	0.00
SO4-2 = SO4-2
	-llnl_gamma	4.00
	-log_k	0.00
	-delta_h	0.00
Sc+3 = Sc+3
	-llnl_gamma	9.00
	-log_k	0.00
	-delta_h	0.00
SeO3-2 = SeO3-2
	-llnl_gamma	4.00
	-log_k	0.00
	-delta_h	0.00
SiO2 = SiO2
	-llnl_gamma	3.00
	-log_k	0.00
	-delta_h	0.00
Sm+3 = Sm+3
	-llnl_gamma	9.00
	-log_k	0.00
	-delta_h	0.00
Sn+2 = Sn+2
	-llnl_gamma	6.00
	-log_k	0.00
	-delta_h	0.00
Sr+2 = Sr+2
	-llnl_gamma	5.00
	-log_k	0.00
	-delta_h	0.00
Tb+3 = Tb+3
	-llnl_gamma	5.00
	-log_k	0.00
	-delta_h	0.00
TcO4- = TcO4-
	-llnl_gamma	4.00
	-log_k	0.00
	-delta_h	0.00
Th+4 = Th+4
	-llnl_gamma	11.00
	-log_k	0.00
	-delta_h	0.00
Tl+ = Tl+
	-llnl_gamma	2.50
	-log_k	0.00
	-delta_h	0.00
Tm+3 = Tm+3
	-llnl_gamma	5.00
	-log_k	0.00
	-delta_h	0.00
UO2+2 = UO2+2
	-llnl_gamma	4.50
	-log_k	0.00
	-delta_h	0.00
VO+2 = VO+2
	-llnl_gamma	4.50
	-log_k	0.00
	-delta_h	0.00
WO4-2 = WO4-2
	-llnl_gamma	5.00
	-log_k	0.00
	-delta_h	0.00
Xe = Xe
	-llnl_gamma	3.00
	-log_k	0.00
	-delta_h	0.00
Y+3 = Y+3
	-llnl_gamma	9.00
	-log_k	0.00
	-delta_h	0.00
Yb+3 = Yb+3
	-llnl_gamma	5.00
	-log_k	0.00
	-delta_h	0.00
Zn+2 = Zn+2
	-llnl_gamma	6.00
	-log_k	0.00
	-delta_h	0.00
ZrO+2 = ZrO+2
	-llnl_gamma	4.50
	-log_k	0.00
	-delta_h	0.00
e- = e-
	-llnl_gamma	4.00
	-log_k	0.00
	-delta_h	0.00

#**************** secondary master species *********************
0.2500 O2    + 1.0000 Ag+ + 1.0000 H+ = Ag+2 + 0.5000 H2O
	-llnl_gamma	4.50
	-analytic	1.269182e+03	2.158240e-01	-8.046802e+04	-4.589319e+02	5.790370e+06	-4.420209e-05
0.5000 O2    + 1.0000 Au+ + 2.0000 H+ = Au+3 + 1.0000 H2O
	-llnl_gamma	5.00
	-analytic	2.089632e+03	3.545629e-01	-1.272465e+05	-7.564012e+02	9.570171e+06	-7.156783e-05
0.5000 O2    + 3.0000 Br- + 2.0000 H+ = Br3- + 1.0000 H2O
	-llnl_gamma	4.00
	-analytic	-9.238033e+02	-1.808935e-01	5.309995e+04	3.385565e+02	-3.105287e+06	5.019995e-05
0.5000 O2    + 1.0000 Br- = BrO-
	-llnl_gamma	4.00
	-analytic	1.038394e+02	2.040341e-02	-6.745488e+03	-4.013625e+01	2.604803e+05	-5.770274e-06
1.5000 O2    + 1.0000 Br- = BrO3-
	-llnl_gamma	3.50
	-analytic	-2.816981e+02	-4.467655e-02	1.789223e+04	9.718501e+01	-1.959396e+06	4.534876e-06
2.0000 O2    + 1.0000 Br- = BrO4-
	-llnl_gamma	4.00
	-analytic	1.503381e+02	2.680702e-02	-1.386317e+04	-5.797240e+01	8.784471e+04	-1.055688e-05
1.0000 H2O + 1.0000 H+ + 1.0000 HCO3- = CH4    + 2.0000 O2
	-llnl_gamma	3.00
	-analytic	-4.929310e+02	-1.094760e-01	-2.591435e+04	1.891442e+02	-4.401202e+05	3.862480e-05
1.0000 H+ + 1.0000 HCO3- = CO    + 1.0000 H2O + 0.5000 O2
	-llnl_gamma	3.00
	-analytic	5.291785e+01	-1.052257e-02	-2.649883e+04	-9.545087e+00	1.673285e+06	1.450762e-05
0.5000 H2O + 1.0000 Ce+3 = Ce+2 + 0.2500 O2    + 1.0000 H+
	-llnl_gamma	4.50
	-analytic	-6.433087e+02	-9.944272e-02	1.193628e+04	2.332844e+02	-2.865880e+06	1.860744e-05
0.2500 O2    + 1.0000 Ce+3 + 1.0000 H+ = Ce+4 + 0.5000 H2O
	-llnl_gamma	5.50
	-analytic	1.053890e+03	1.783160e-01	-6.781271e+04	-3.808718e+02	5.208913e+06	-3.350976e-05
0.5000 O2    + 1.0000 Cl- = ClO-
	-llnl_gamma	4.00
	-analytic	-2.243083e+01	-2.703420e-03	-1.059538e+03	6.210956e+00	-2.246318e+05	-8.291801e-07
1.0000 O2    + 1.0000 Cl- = ClO2-
	-llnl_gamma	4.00
	-analytic	1.277765e+02	2.552420e-02	-1.153987e+04	-4.882001e+01	2.471928e+05	-8.386864e-06
1.5000 O2    + 1.0000 Cl- = ClO3-
	-llnl_gamma	3.50
	-analytic	-2.180932e+02	-3.110814e-02	1.356743e+04	7.432705e+01	-1.664208e+06	1.516044e-06
2.0000 O2    + 1.0000 Cl- = ClO4-
	-llnl_gamma	3.50
	-analytic	6.627655e+00	5.666411e-03	4.987275e+02	-6.889869e+00	-6.005879e+05	-6.752149e-06
0.2500 O2    + 1.0000 Co+2 + 1.0000 H+ = Co+3 + 0.5000 H2O
	-llnl_gamma	5.00
	-analytic	1.162543e+03	1.881395e-01	-7.455692e+04	-4.190739e+02	5.450981e+06	-3.594993e-05
4.0000 H+ + 1.0000 CrO4-2 = Cr+2 + 2.0000 H2O + 1.0000 O2
	-llnl_gamma	4.50
	-analytic	-2.509095e+02	-7.249498e-02	-2.747708e+03	1.017713e+02	6.352760e+05	3.294224e-05
5.0000 H+ + 1.0000 CrO4-2 = Cr+3 + 2.5000 H2O + 0.7500 O2
	-llnl_gamma	9.00
	-analytic	1.240795e+03	1.744117e-01	-8.492374e+04	-4.368145e+02	7.522340e+06	-1.517267e-05
0.5000 H2O + 1.0000 Cu+2 = Cu+ + 0.2500 O2    + 1.0000 H+
	-llnl_gamma	4.00
	-analytic	-5.703568e+02	-9.078201e-02	2.879007e+04	2.060075e+02	-2.671260e+06	1.744715e-05
0.5000 H2O + 1.0000 Dy+3 = Dy+2 + 0.2500 O2    + 1.0000 H+
	-llnl_gamma	4.50
	-analytic	-1.348728e+03	-2.212044e-01	6.357388e+04	4.867115e+02	-6.301141e+06	4.321505e-05
0.2500 O2    + 1.0000 Dy+3 + 1.0000 H+ = Dy+4 + 0.5000 H2O
	-llnl_gamma	5.50
	-analytic	1.458185e+03	2.429081e-01	-1.070575e+05	-5.253385e+02	7.095597e+06	-4.624843e-05
0.5000 H2O + 1.0000 Er+3 = Er+2 + 0.2500 O2    + 1.0000 H+
	-llnl_gamma	4.50
	-analytic	-1.205308e+03	-1.986467e-01	5.104138e+04	4.359264e+02	-5.503521e+06	3.898431e-05
0.2500 O2    + 1.0000 Er+3 + 1.0000 H+ = Er+4 + 0.5000 H2O
	-llnl_gamma	5.50
	-analytic	1.619858e+03	2.688775e-01	-1.242787e+05	-5.826980e+02	7.962536e+06	-5.124863e-05
0.5000 H2O + 1.0000 Eu+3 = Eu+2 + 0.2500 O2    + 1.0000 H+
	-llnl_gamma	4.50
	-analytic	-6.267778e+02	-9.814569e-02	2.839072e+04	2.274179e+02	-2.851982e+06	1.839286e-05
0.2500 O2    + 1.0000 Eu+3 + 1.0000 H+ = Eu+4 + 0.5000 H2O
	-llnl_gamma	5.50
	-analytic	1.380361e+03	2.317075e-01	-1.104065e+05	-4.979192e+02	6.688437e+06	-4.416302e-05
0.2500 O2    + 1.0000 Fe+2 + 1.0000 H+ = Fe+3 + 0.5000 H2O
	-llnl_gamma	9.00
	-analytic	1.018262e+03	1.671096e-01	-5.950350e+04	-3.675569e+02	4.749942e+06	-3.243398e-05
0.5000 H2O + 1.0000 Gd+3 = Gd+2 + 0.2500 O2    + 1.0000 H+
	-llnl_gamma	4.50
	-analytic	-1.277218e+03	-2.097616e-01	5.205656e+04	4.608428e+02	-5.908323e+06	4.129819e-05
0.2500 O2    + 1.0000 Gd+3 + 1.0000 H+ = Gd+4 + 0.5000 H2O
	-llnl_gamma	5.50
	-analytic	1.337812e+03	2.225858e-01	-1.138084e+05	-4.828455e+02	6.507883e+06	-4.177299e-05
1.0000 H2O = H2    + 0.5000 O2
	-CO2_llnl_gamma
	-analytic	3.391706e+02	5.659713e-02	-3.832295e+04	-1.196444e+02	2.016899e+06	-8.513285e-06
1.0000 H2AsO4- = H2AsO3- + 0.5000 O2
	-llnl_gamma	4.00
	-analytic	1.059840e+02	1.730877e-02	-1.780472e+04	-3.635113e+01	7.067453e+05	-1.898803e-06
2.0000 O2    + 2.0000 NH3    = H2N2O2    + 2.0000 H2O
	-llnl_gamma	3.00
	-analytic	7.834987e+01	9.957828e-03	2.149194e+04	-3.076793e+01	-2.364615e+05	-5.239797e-06
1.0000 H2O + 0.5000 O2    = H2O2
	-llnl_gamma	3.00
	-analytic	4.125583e+01	-1.097644e-03	-7.671888e+03	-1.339623e+01	1.252532e+05	3.680340e-07
1.0000 HPO4-2 + 1.0000 H+ = H2PO2- + 1.0000 O2
	-llnl_gamma	4.00
	-analytic	-4.106718e+02	-8.306230e-02	-1.570664e+04	1.571216e+02	-7.576636e+05	2.656784e-05
1.0000 HPO4-2 + 1.0000 H+ = H2PO3- + 0.5000 O2
	-llnl_gamma	4.00
	-analytic	-9.265088e+02	-1.706680e-01	3.588172e+04	3.416382e+02	-3.310686e+06	4.316803e-05
1.0000 SO4-2 + 1.0000 H+ = HS- + 2.0000 O2
	-llnl_gamma	3.50
	-analytic	-5.111014e+02	-1.048245e-01	-2.248705e+04	1.956190e+02	-8.786776e+05	3.455432e-05
1.0000 H+ + 0.5000 O2    + 1.0000 SO4-2 = HSO5-
	-llnl_gamma	4.00
	-analytic	-1.669840e+03	-2.964723e-01	9.319122e+04	6.064522e+02	-7.083813e+06	6.689293e-05
1.0000 H+ + 1.0000 SeO3-2 = HSe- + 1.5000 O2
	-llnl_gamma	4.00
	-analytic	-4.245809e+02	-8.821542e-02	-8.064207e+03	1.629949e+02	-6.076968e+05	2.957923e-05
1.0000 H2O + 2.0000 Hg+2 = Hg2+2 + 0.5000 O2    + 2.0000 H+
	-llnl_gamma	4.00
	-analytic	-7.868222e+02	-1.362426e-01	4.282243e+04	2.855207e+02	-3.499483e+06	2.874328e-05
0.5000 H2O + 1.0000 Ho+3 = Ho+2 + 0.2500 O2    + 1.0000 H+
	-llnl_gamma	4.50
	-analytic	-9.749428e+02	-1.625994e-01	3.674658e+04	3.538362e+02	-4.288743e+06	3.224938e-05
0.2500 O2    + 1.0000 Ho+3 + 1.0000 H+ = Ho+4 + 0.5000 H2O
	-llnl_gamma	5.50
	-analytic	1.414855e+03	2.345164e-01	-1.108963e+05	-5.094452e+02	6.988000e+06	-4.442843e-05
2.0000 H+ + 0.5000 O2    + 3.0000 I- = I3- + 1.0000 H2O
	-llnl_gamma	4.00
	-analytic	-4.845490e+02	-1.073758e-01	3.080226e+04	1.805541e+02	-8.909726e+05	3.620598e-05
0.5000 O2    + 1.0000 I- = IO-
	-llnl_gamma	4.00
	-analytic	4.445669e+02	7.464978e-02	-2.476899e+04	-1.628469e+02	1.974524e+06	-1.606721e-05
1.5000 O2    + 1.0000 I- = IO3-
	-llnl_gamma	4.00
	-analytic	1.195366e+02	2.530648e-02	3.895656e+03	-4.823849e+01	-1.692821e+04	-9.935707e-06
2.0000 O2    + 1.0000 I- = IO4-
	-llnl_gamma	3.50
	-analytic	7.876286e+01	1.526366e-02	2.744288e+03	-3.241566e+01	-2.585536e+05	-7.996292e-06
0.5000 H2O + 1.0000 La+3 = La+2 + 0.2500 O2    + 1.0000 H+
	-llnl_gamma	4.50
	-analytic	-8.567632e+02	-1.399474e-01	2.532235e+04	3.107742e+02	-3.900177e+06	2.757688e-05
0.2500 O2    + 1.0000 Lu+3 + 1.0000 H+ = Lu+4 + 0.5000 H2O
	-llnl_gamma	5.50
	-analytic	1.262185e+03	2.111120e-01	-1.127442e+05	-4.551110e+02	6.097405e+06	-4.012247e-05
0.2500 O2    + 1.0000 Mn+2 + 1.0000 H+ = Mn+3 + 0.5000 H2O
	-llnl_gamma	5.00
	-analytic	1.156778e+03	1.878326e-01	-7.084424e+04	-4.182019e+02	5.356624e+06	-3.594948e-05
1.5000 H2O + 1.0000 Mn+2 + 1.2500 O2    = MnO4- + 3.0000 H+
	-llnl_gamma	3.50
	-analytic	-5.872741e+02	-8.568473e-02	3.731602e+04	2.058477e+02	-3.789599e+06	6.819546e-06
2.0000 H2O + 1.0000 Mn+2 + 1.0000 O2    = MnO4-2 + 4.0000 H+
	-llnl_gamma	4.00
	-analytic	3.102863e+02	8.267235e-02	-1.547334e+04	-1.238239e+02	-4.399777e+05	-3.507759e-05
1.5000 O2    + 2.0000 NH3    = N2    + 3.0000 H2O
	-llnl_gamma	3.00
	-analytic	-1.599349e+02	-2.255525e-02	4.720824e+04	5.474998e+01	-9.553850e+05	2.484004e-06
0.5000 O2    + 1.0000 H+ + 2.0000 NH3    = N2H5+ + 1.0000 H2O
	-llnl_gamma	4.00
	-analytic	3.707334e+02	6.373365e-02	-1.500898e+04	-1.350359e+02	1.444326e+06	-1.530876e-05
1.5000 O2    + 1.0000 NH3    = NO2- + 1.0000 H2O + 1.0000 H+
	-llnl_gamma	3.00
	-analytic	1.103111e+02	3.925393e-02	1.651062e+04	-4.812264e+01	-7.936592e+05	-2.015474e-05
2.0000 O2    + 1.0000 NH3    = NO3- + 1.0000 H2O + 1.0000 H+
	-llnl_gamma	3.00
	-analytic	6.972928e+02	1.432257e-01	-1.362695e+04	-2.610439e+02	1.695300e+06	-4.323957e-05
0.5000 H2O + 1.0000 Nd+3 = Nd+2 + 0.2500 O2    + 1.0000 H+
	-llnl_gamma	4.50
	-analytic	-4.037976e+02	-6.261761e-02	2.098388e+03	1.480496e+02	-1.658106e+06	1.188744e-05
0.2500 O2    + 1.0000 Nd+3 + 1.0000 H+ = Nd+4 + 0.5000 H2O
	-llnl_gamma	5.50
	-analytic	1.230266e+03	2.053838e-01	-9.538675e+04	-4.434557e+02	6.082431e+06	-3.849745e-05
2 H2O = O2 + 4 H+ + 4 e-
	-CO2_llnl_gamma
	-analytic	4.097163e+02	6.300848e-02	-5.266435e+04	-1.458340e+02	2.167227e+06	-1.004956e-05
0.5000 H2O + 1.0000 Pm+3 = Pm+2 + 0.2500 O2    + 1.0000 H+
	-llnl_gamma	4.50
	-analytic	-1.242729e+03	-2.052232e-01	5.368281e+04	4.493909e+02	-5.569791e+06	4.070575e-05
0.2500 O2    + 1.0000 Pm+3 + 1.0000 H+ = Pm+4 + 0.5000 H2O
	-llnl_gamma	5.50
	-analytic	7.540490e+02	1.246840e-01	-6.775350e+04	-2.724317e+02	3.873170e+06	-2.228020e-05
0.5000 H2O + 1.0000 Pr+3 = Pr+2 + 0.2500 O2    + 1.0000 H+
	-llnl_gamma	4.50
	-analytic	-6.109740e+02	-9.373688e-02	1.404587e+04	2.214175e+02	-2.796931e+06	1.720505e-05
0.2500 O2    + 1.0000 Pr+3 + 1.0000 H+ = Pr+4 + 0.5000 H2O
	-llnl_gamma	5.50
	-analytic	1.547197e+03	2.621588e-01	-1.095078e+05	-5.580262e+02	7.481292e+06	-5.075715e-05
0.5000 H2O + 1.0000 Rh+3 = Rh+2 + 0.2500 O2    + 1.0000 H+
	-llnl_gamma	4.50
	-analytic	-1.167125e+03	-1.905203e-01	7.002909e+04	4.210582e+02	-5.399981e+06	3.694825e-05
4.0000 H+ + 1.0000 RuO4-2 = Ru+2 + 2.0000 H2O + 1.0000 O2
	-llnl_gamma	4.50
	-analytic	6.081358e+02	7.434063e-02	-4.977157e+04	-2.071332e+02	4.499909e+06	2.614781e-06
5.0000 H+ + 1.0000 RuO4-2 = Ru+3 + 2.5000 H2O + 0.7500 O2
	-llnl_gamma	5.00
	-analytic	1.039551e+03	1.369106e-01	-7.032590e+04	-3.630218e+02	6.598653e+06	-7.684675e-06
2.0000 SO4-2 + 2.0000 H+ = S2O3-2 + 1.0000 H2O + 2.0000 O2
	-llnl_gamma	4.00
	-analytic	-4.791902e+02	-1.155629e-01	-2.847776e+04	1.896671e+02	2.817472e+04	4.414701e-05